myETL/UCT_Source/20221102_1230_FO3_RO0.UCT
##C 2007.05.01
*******************************************************
	Created by Transmission Network Analyzer_FORsee (TNA_FORsee). Made by EKC Belgrade & DMS Group Novi Sad, 2012.
	881  nodes
	1269  lines
	148  transformers
	148  transformer regulations
	0  tap changers
*******************************************************

##N
##ZRO
RZLAT_5  RZLAT_5      0 0 116.38 2.08267 .543537       0       0       0       0       0       0     0       0       0       0  
RZIZI_5  RZIZI_5      0 0 119.04 14.8291 1.22207       0       0       0      -5       2      -2     0       0       0       0  
RZIZI25  RZIZI25      0 0 119.04       0       0       0       0       0       0       0       0     0       0       0       0  
RZIMN_5  RZIMN_5      0 0 119.37 5.65829 1.36683       0       0       0      -2       2      -2     0       0       0       0  
RZIAGL5  RZIAGL5      0 0  117.8       0       0       0       0       0       0       0       0     0       0       0       0  
RZEBI_5  RZEBI_5      0 0 117.95 3.63068    .913       0       0       0      -9      10     -10     0       0       0       0  
RZEBIN5  RZEBIN5      0 2 117.98 .069274 .061281      -4 .502113       0     -47      20     -20     0       0       0       0  
RZAVI_5  RZAVI_5      0 2 117.98       0       0      -6 1.94694       0     -38       9      -9     0       0       0       0  
RZALA_5  RZALA_5      0 0 117.13 8.05802 .452947       0       0       0       0       0       0     0       0       0       0  
RVUTC_5  RVUTC_5      0 2 117.98 .077267 .067498      -4 10.1556       0     -52      20     -20     0       0       0       0  
RVUL_A5  RVUL_A5      0 0 117.67 4.52681 1.72031       0       0       0       0       0       0     0       0       0       0  
RVULT_5  RVULT_5      0 0 117.62 2.62532 .362358       0       0       0       0       0       0     0       0       0       0  
RVULCB5  RVULCB5      0 0 116.56 7.90349 .778892       0       0       0       0       0       0     0       0       0       0  
RVULCA5  RVULCA5      0 0 117.99 3.39533 .090589       0       0       0       0       0       0     0       0       0       0  
RVOIV_5  RVOIV_5      0 2 117.98 1.36683  .55153      -4 -9.8783       0      -6      11     -11     0       0       0       0  
RVOEV_5  RVOEV_5      0 0 117.95 6.60948 .905006       0       0       0       0       0       0     0       0       0       0  
RVMAR_5  RVMAR_5      0 2 117.98 .312622 .195389     -23 11.1238       0     -50      16     -34     0       0       0       0  
RVLTE_5  RVLTE_5      0 0 118.39 2.71591       0       0       0       0       0       0       0     0       0       0       0  
RVLCE25  RVLCE25      0 2 117.98 .044407 .039078      -3 1.67423       0     -10      18     -18     0       0       0       0  
RVLCE15  RVLCE15      0 2 117.98 4.57121 .853495     -16 -2.9394       0     -46      25     -25     0       0       0       0  
RVLAR25  RVLAR25      0 0 117.65       0       0       0       0       0     -12       9      -9     0       0       0       0  
RVLAR15  RVLAR15      0 0 117.65 13.8522 2.08267       0       0       0      -8       7      -7     0       0       0       0  
RVISEU5  RVISEU5      0 0 112.87 17.5974 3.95574       0       0       0       0       0       0     0       0       0       0  
RVIRF_5  RVIRF_5      0 2 117.98  4.6618  1.6688     -10 1.37989       0     -18      23     -23     0       0       0       0  
RVINJ_5  RVINJ_5      0 2 117.98 2.38019 .928098      -5   .9776       0      -8      10     -12     0       0       0       0  
RVILS_5  RVILS_5      0 0 117.89 13.9428 1.99208       0       0       0       0       0       0     0       0       0       0  
RVILN_5  RVILN_5      0 2 117.98 12.4942  1.8109      -3 -9.2521       0     -46      11     -11     0       0       0       0  
RVIIS25  RVIIS25      0 0  119.8 .724716 .271768       0       0       0       0       0       0     0       0       0       0  
RVIIS15  RVIIS15      0 0 117.97 10.6833 1.99208       0       0       0       0       0       0     0       0       0       0  
RVIDE_5  RVIDE_5      0 2 117.98 3.34826 1.16434     -17      12       0     -28      12     -12     0       0       0       0  
RVETI22  RVETI22      0 0 233.37       0       0       0       0       0       0       0       0     0       0       0       0  
RVETI15  RVETI15      0 0 117.07 43.0984 12.9268       0       0       0       0       0       0     0       0       0       0  
RVERE_5  RVERE_5      0 0 117.87 4.68934 .452947       0       0       0       0       0       0     0       0       0       0  
RVEGA_5  RVEGA_5      0 0 117.96 3.44062 .090589       0       0       0       0       0       0     0       0       0       0  
RVDOR_5  RVDOR_5      0 0 117.43 5.25152 1.74784       0       0       0       0       0       0     0       0       0       0  
RVCAL_5  RVCAL_5      0 2 117.98 1.93702 .666099      -7 -17.892       0     -50      40     -40     0       0       0       0  
RVATR_5  RVATR_5      0 0 117.84 4.64404 .914776       0       0       0       0       0       0     0       0       0       0  
RVASL_5  RVASL_5      0 0 118.44 6.36169 1.13681       0       0       0     -11      10     -11     0       0       0       0  
RVASC25  RVASC25      0 0 117.98       0       0       0       0       0       0       0       0     0       0       0       0  
RVASC15  RVASC15      0 2 117.98 1.28513 .196277      -2 -18.513       0     -12      19     -19     0       0       0       0  
RVARD_5  RVARD_5      0 0 117.59 11.0448 2.08267       0       0       0       0       0       0     0       0       0       0  
RVALE_5  RVALE_5      0 0 117.37 14.8478  5.5224       0       0       0       0       0       0     0       0       0       0  
RVALD_5  RVALD_5      0 2 117.98  1.8109 .362358      -4  2.2922       0     -14       8      -8     0       0       0       0  
RVADU_5  RVADU_5      0 2 117.98 17.4607 3.29763     -19 -2.1563       0     -67      17     -40     0       0       0       0  
RVACAB5  RVACAB5      0 0 117.99 14.9108 1.23095       0       0       0       0       0       0     0       0       0       0  
RVACAA5  RVACAA5      0 0 117.07 5.80305 .226474       0       0       0       0       0       0     0       0       0       0  
RUZUN_5  RUZUN_5      0 0 118.41 2.26296 .805536       0       0       0       0       0       0     0       0       0       0  
RURZI_5  RURZI_5      0 2 117.98 9.15131 2.80206     -19 3.46797       0     -30      30     -30     0       0       0       0  
RURLE_5  RURLE_5      0 0  117.2 10.9542 3.16885       0       0       0       0       0       0     0       0       0       0  
RUREC_5  RUREC_5      0 0 119.22 .090589       0       0       0       0       0       0       0     0       0       0       0  
RUREC41  RUREC41      0 0 413.77 .666916 107.274       0       0       0       0       0       0     0       0       0       0  
RUREC22  RUREC22      0 0 233.27       0       0       0       0       0       0       0       0     0       0       0       0  
RUNGH25  RUNGH25      0 0 118.84 14.5485 2.81627       0       0       0       0       0       0     0       0       0       0  
RUNGH15  RUNGH15      0 2 117.98 21.9635 2.49743      -2      18       0      -3      18     -18     0       0       0       0  
RUNG222  RUNG222      0 0 234.85       0       0       0       0       0       0       0       0     0       0       0       0  
RUNG212  RUNG212      0 0 234.85       0       0       0       0       0       0       0       0     0       0       0       0  
RUCEA25  RUCEA25      0 2 117.98 .876586 .180291     -12 2.44431       0     -32      15     -15     0       0       0       0  
RUCEA15  RUCEA15      0 2 117.98  5.2755 .336602     -21 4.41168       0     -49      33     -33     0       0       0       0  
RTVR421  RTVR421      0 0 415.37       0       0       0       0       0       0       0       0     0       0       0       0  
RTVER41  RTVER41      0 0 415.37       0       0       0       0       0       0       0       0     0       0       0       0  
RTVER25  RTVER25      0 2 117.98  .37568 .331273     -20 -18.588       0    -253      50     -50     0       0       0       0  
RTVER15  RTVER15      0 2 117.98 .516893 .455612     -27  -34.88       0    -348      99     -99     0       0       0       0  
RTUTO_5  RTUTO_5      0 0 117.98       0       0       0       0       0       0       0       0     0       0       0       0  
RTUSN_5  RTUSN_5      0 0 117.02 4.36339 .362358       0       0       0       0       0       0     0       0       0       0  
RTURD_5  RTURD_5      0 0 117.97  15.283 .944084       0       0       0       0       0       0     0       0       0       0  
RTURC51  RTURC51      0 2    412    18.4  16.227    -201  5.1286       0    -630     190    -260     0       0       0       0  
RTURC11  RTURC11      0 2    412    12.1  10.671    -201 11.3193       0    -315     156    -200     0       0       0       0  
RTULC41  RTULC41      0 0 413.85       0       0       0       0       0       0       0       0     0       0       0       0  
RTULC25  RTULC25      0 2 117.98 .163416 .127891      -9 19.0387       0    -122      29     -29     0       0       0       0  
RTULC15  RTULC15      0 2 117.98  41.133   9.102      -6 22.3828       0     -80      25     -25     0       0       0       0  
RTRUS_5  RTRUS_5      0 0 117.93 3.16885 .217592       0       0       0       0       0       0     0       0       0       0  
RTRJS25  RTRJS25      0 0 118.57       0       0       0       0       0     -12       9      -9     0       0       0       0  
RTRJS15  RTRJS15      0 0 118.57 11.0457 2.98768      -4   -3.75       0     -12       9      -9     0       0       0       0  
RTRIF_5  RTRIF_5      0 0 117.28 11.4978 4.52681       0       0       0       0       0       0     0       0       0       0  
RTRGJ_5  RTRGJ_5      0 0 118.09 7.51448 2.26296       0       0       0     -19      14     -14     0       0       0       0  
RTRGJ22  RTRGJ22      0 0 233.43       0       0       0       0       0       0       0       0     0       0       0       0  
RTRAI_5  RTRAI_5      0 2 117.98 2.26296 .271768      -6 1.23214       0     -45       5     -10     0       0       0       0  
RTOPV_5  RTOPV_5      0 2 117.98  5.5224 1.17677      -2      -8       0     -10       8      -8     0       0       0       0  
RTOPRA5  RTOPRA5      0 0 117.08 11.3077 .724716       0       0       0       0       0       0     0       0       0       0  
RTOPO_5  RTOPO_5      0 2 117.98 1.07642  .13766     -10  4.1617       0    -112      25     -30     0       0       0       0  
RTOPOB5  RTOPOB5      0 0 117.13 8.86355 .479591       0       0       0       0       0       0     0       0       0       0  
RTOPL25  RTOPL25      0 0 117.27 4.88917 1.90149       0       0       0       0       0       0     0       0       0       0  
RTOPL15  RTOPL15      0 0 116.78 .905006 .271768      -1   -5.03       0     -50       5     -22     0       0       0       0  
RTOPA_5  RTOPA_5      0 0 117.91  3.6218 1.08619       0       0       0       0       0       0     0       0       0       0  
RTOHN_5  RTOHN_5      0 0 118.73 12.4214 4.02857      -3   -2.25       0      -4       3      -3     0       0       0       0  
RTMAG45  RTMAG45      0 0 118.08  2.8065 .090589       0       0       0       0       0       0     0       0       0       0  
RTMAG35  RTMAG35      0 0 120.52   1.223   0.408       0       0       0     -32      24     -30     0       0       0       0  
RTMAG22  RTMAG22      0 0  236.3       0       0       0       0       0       0       0       0     0       0       0       0  
RTITU_5  RTITU_5      0 0 116.73 33.4986 9.95862       0       0       0      -5      10     -10     0       0       0       0  
RTITAB5  RTITAB5      0 0 118.42 7.84931       0       0       0       0       0       0       0     0       0       0       0  
RTITAA5  RTITAA5      0 0 118.43       0       0       0       0       0       0       0       0     0       0       0       0  
RTIRN25  RTIRN25      0 0 119.05 6.33771       0       0       0       0       0       0       0     0       0       0       0  
RTIRN15  RTIRN15      0 0 119.05       0       0       0       0       0       0       0       0     0       0       0       0  
RTIRG_5  RTIRG_5      0 0 118.32  27.795 9.23479       0       0       0      -5       4      -4     0       0       0       0  
RTINTB1  RTINTB1      0 0    412 .200158 107.319       0       0       0       0       0       0     0       0       0       0  
RTINTA1  RTINTA1      0 0    412 .297862  107.32       0       0       0       0       0       0     0       0       0       0  
RTINC_5  RTINC_5      0 0 116.71 12.6301 3.44062       0       0       0       0       0       0     0       0       0       0  
RTINCD5  RTINCD5      0 0 116.71       0       0       0       0       0       0       0       0     0       0       0       0  
RTIMPN5  RTIMPN5      0 0 118.46 19.9181 1.90149       0       0       0       0       0       0     0       0       0       0  
RTIMI_5  RTIMI_5      0 0 116.71 29.4238 3.80298       0       0       0       0       0       0     0       0       0       0  
RTIMI22  RTIMI22      0 0 234.73       0       0       0       0       0       0       0       0     0       0       0       0  
RTIMI12  RTIMI12      0 0 234.73       0       0       0       0       0       0       0       0     0       0       0       0  
RTIM1A5  RTIM1A5      0 0 116.71       0       0       0       0       0       0       0       0     0       0       0       0  
RTIHA_5  RTIHA_5      0 0 117.64       0       0       0       0       0       0       0       0     0       0       0       0  
RTIHA22  RTIHA22      0 0 233.14       0       0       0       0       0       0       0       0     0       0       0       0  
RTIBA_5  RTIBA_5      0 0 117.69 9.22591 2.60756       0       0       0       0       0       0     0       0       0       0  
RTHARG2  RTHARG2      0 0 238.69       0       0       0       0       0    -220      40     -66     0       0       0       0  
RTGTR_5  RTGTR_5      0 0  118.3 6.74447 1.38549       0       0       0       0       0       0     0       0       0       0  
RTGSE_5  RTGSE_5      0 0  118.2 13.5431 2.34112       0       0       0     -21       7      -7     0       0       0       0  
RTGNT_5  RTGNT_5      0 0 117.69 11.5075       0       0       0       0       0       0       0     0       0       0       0  
RTGMU_5  RTGMU_5      0 0 118.94 25.6581 4.25504       0       0       0      -9       7      -7     0       0       0       0  
RTGLAP5  RTGLAP5      0 0 118.57       0       0       0       0       0       0       0       0     0       0       0       0  
RTGFR_5  RTGFR_5      0 0 117.69 10.9729 2.42638       0       0       0       0       0       0     0       0       0       0  
RTEXT_5  RTEXT_5      0 0 117.88 2.62532 1.17677       0       0       0       0       0       0     0       0       0       0  
RTELEB5  RTELEB5      0 0 117.98 7.87684 3.16885       0       0       0       0       0       0     0       0       0       0  
RTELEA5  RTELEA5      0 2 117.98 25.3766 11.7926     -20 -24.386       0     -80      51     -51     0       0       0       0  
RTELE22  RTELE22      0 0 236.75       0       0       0       0       0       0       0       0     0       0       0       0  
RTEIU_5  RTEIU_5      0 0  116.8 9.50656 3.53121       0       0       0       0       0       0     0       0       0       0  
RTEIS_5  RTEIS_5      0 0 117.95 2.89709 .452947       0       0       0       0       0       0     0       0       0       0  
RTECU_5  RTECU_5      0 2 117.98 18.1063 4.79858      -5  -11.09       0     -30      20     -20     0       0       0       0  
RTAUN_5  RTAUN_5      0 0 117.33 12.9463 3.53032       0       0       0       0       0       0     0       0       0       0  
RTATN_5  RTATN_5      0 0  117.6 1.99208 .634126       0       0       0       0       0       0     0       0       0       0  
RTATA_5  RTATA_5      0 0 117.84 21.0043 3.25856       0       0       0       0       0       0     0       0       0       0  
RTART_5  RTART_5      0 0 117.63       0       0       0       0       0       0       0       0     0       0       0       0  
RTARN_5  RTARN_5      0 0 118.54 .177626 .156311       0       0       0     -50      18     -18     0       0       0       0  
RTARGB2  RTARGB2      0 0 237.91       0       0       0       0       0       0       0       0     0       0       0       0  
RTARGA2  RTARGA2      0 0 237.91       0       0       0       0       0       0       0       0     0       0       0       0  
RTAND_5  RTAND_5      0 0 119.61 7.24271  1.8109       0       0       0       0       0       0     0       0       0       0  
RTAMD_5  RTAMD_5      0 2 117.98 14.4046 3.17685      -2 -7.8246       0      -3      11     -11     0       0       0       0  
RSUPL_5  RSUPL_5      0 0 117.46 9.59715 1.44854      -1       0       0      -2       1      -1     0       0       0       0  
RSUGA22  RSUGA22      0 0    220       0       0       0       0       0    -150      30     -30     0       0       0       0  
RSUDR_5  RSUDR_5      0 0 117.64 8.87244  2.8065       0       0       0       0       0       0     0       0       0       0  
RSUCE41  RSUCE41      0 0    402 .782124 100.649       0       0       0       0       0       0     0       0       0       0  
RSUCE25  RSUCE25      0 0 117.94 .008881 .005329       0       0       0      -3       3     -47     0       0       0       0  
RSUCE22  RSUCE22      0 0 229.45       0       0       0       0       0       0       0       0     0       0       0       0  
RSUCE15  RSUCE15      0 0 117.94   17.41 1.08619       0       0       0       0       0       0     0       0       0       0  
RSTUP_5  RSTUP_5      0 2 117.98 5.61299 .905006      -3     -18       0     -45      18     -18     0       0       0       0  
RSTUP41  RSTUP41      0 0 416.75       0       0       0       0       0       0       0       0     0       0       0       0  
RSTUP22  RSTUP22      0 0 241.63       0       0       0       0       0       0       0       0     0       0       0       0  
RSTUP15  RSTUP15      0 2 117.98 .427191 .365022     -22      36       0    -287      36    -176     0       0       0       0  
RSTUD_5  RSTUD_5      0 0 117.93 3.07826 .814417       0       0       0       0       0       0     0       0       0       0  
RSTUC_5  RSTUC_5      0 0 117.82 6.88036 .271768       0       0       0       0       0       0     0       0       0       0  
RSTRE_5  RSTRE_5      0 0 117.93 2.89709 .362358       0       0       0       0       0       0     0       0       0       0  
RSTPI_5  RSTPI_5      0 0 116.94 11.5342 .570181      -1   -0.97       0      -1       1      -1     0       0       0       0  
RSTOI_5  RSTOI_5      0 0 118.04 2.98768 .724716       0       0       0       0       0       0     0       0       0       0  
RSTNC_5  RSTNC_5      0 2 117.98 2.89709 .634126      -1 -1.5855       0     -15      12     -12     0       0       0       0  
RSTLP_5  RSTLP_5      0 0 118.43  3.6218  1.8109       0       0       0       0       0       0     0       0       0       0  
RSTLP22  RSTLP22      0 0 234.56       0       0       0       0       0       0       0       0     0       0       0       0  
RSTJ__5  RSTJ__5      0 2 117.98 .050624 .044407      -3 1.67677       0     -34       5     -10     0       0       0       0  
RSTEJ_5  RSTEJ_5      0 2 117.98 20.5842 6.44873     -73 12.8728       0    -123      41     -41     0       0       0       0  
RSTEJ25  RSTEJ25      0 0 118.01       0       0       0       0       0     -70      13     -13     0       0       0       0  
RSTEJ22  RSTEJ22      0 0 233.13       0       0       0       0       0       0       0       0     0       0       0       0  
RSTEF_5  RSTEF_5      0 0 119.74 5.43181 .905006       0       0       0       0       0       0     0       0       0       0  
RSOVA_5  RSOVA_5      0 0 119.17 8.40173 .977833       0       0       0       0       0       0     0       0       0       0  
RSOMC_5  RSOMC_5      0 0 118.49 4.69466 .452947       0       0       0       0       0       0     0       0       0       0  
RSOLE_5  RSOLE_5      0 0 117.26       0       0       0       0       0       0       0       0     0       0       0       0  
RSOLE25  RSOLE25      0 0 118.28 20.4794       0       0       0       0       0       0       0     0       0       0       0  
RSNTGB5  RSNTGB5      0 0    120       6       2       0       0       0       0       0       0     0       0       0       0  
RSNAVA5  RSNAVA5      0 0 116.24       0       0       0       0       0       0       0       0     0       0       0       0  
RSMIRI5  RSMIRI5      0 0 117.57       0       0       0       0       0       0       0       0     0       0       0       0  
RSMIR41  RSMIR41      0 0 413.74       0       0       0       0       0       0       0       0     0       0       0       0  
RSMIR25  RSMIR25      0 2 117.98  21.128   5.505      -5     -34       0     -67      34     -34     0       0       0       0  
RSMIR15  RSMIR15      0 0 117.57      80      30       0       0       0    -165      50    -100     0       0       0       0  
RSMI2R1  RSMI2R1      0 0 413.74       0       0       0       0       0       0       0       0     0       0       0       0  
RSLOS25  RSLOS25      0 0 118.96 2.71591 1.08619       0       0       0       0       0       0     0       0       0       0  
RSLOS15  RSLOS15      0 0 118.96 2.71591 1.08619       0       0       0       0       0       0     0       0       0       0  
RSLON_5  RSLON_5      0 0 118.69 16.2963 4.52681       0       0       0       0       0       0     0       0       0       0  
RSLAT41  RSLAT41      0 0 414.75       0       0       0       0       0       0       0       0     0       0       0       0  
RSLAT22  RSLAT22      0 0 236.17     113      55       0       0       0       0       0       0     0       0       0       0  
RSKEL_5  RSKEL_5      0 2 117.98 8.35288 2.73722      -1     -12       0     -16      12     -12     0       0       0       0  
RSITO_5  RSITO_5      0 0 117.79 28.9717  3.6218       0       0       0       0       0       0     0       0       0       0  
RSISC_5  RSISC_5      0 2 117.98       0       0      -7 2.06768       0     -40      13     -13     0       0       0       0  
RSIRE_5  RSIRE_5      0 0 117.68 16.2066 2.21767       0       0       0      -3       2      -2     0       0       0       0  
RSINIM5  RSINIM5      0 0 116.24 11.3166 2.89709       0       0       0       0       0       0     0       0       0       0  
RSIML_5  RSIML_5      0 0 116.98 15.8887 2.62177       0       0       0       0       0       0     0       0       0       0  
RSIME_5  RSIME_5      0 0  117.3 5.43181 .543537       0       0       0       0       0       0     0       0       0       0  
RSILI_5  RSILI_5      0 2 117.98 .103911 .091478      -5 2.72369       0     -70      20     -25     0       0       0       0  
RSIGH_5  RSIGH_5      0 0 107.87 22.2681 3.47881       0       0       0       0       0       0     0       0       0       0  
RSIBO_5  RSIBO_5      0 0 115.87 10.5927 4.34563       0       0       0       0       0       0     0       0       0       0  
RSIBN_5  RSIBN_5      0 0 117.22 49.5498 7.10683       0       0       0       0       0       0     0       0       0       0  
RSIBN25  RSIBN25      0 0 117.22       0       0       0       0       0       0       0       0     0       0       0       0  
RSIBI41  RSIBI41      0 0 412.48 .197911 94.2441       0       0       0       0       0       0     0       0       0       0  
RSIBI25  RSIBI25      0 0 117.53  10.249 2.20878       0       0       0       0       0       0     0       0       0       0  
RSIBI15  RSIBI15      0 0 117.53 13.2269 3.70262       0       0       0       0       0       0     0       0       0       0  
RSIB222  RSIB222      0 0  241.2       0       0       0       0       0       0       0       0     0       0       0       0  
RSIB212  RSIB212      0 0  241.2       0       0       0       0       0       0       0       0     0       0       0       0  
RSFGH25  RSFGH25      0 0 118.58 1.18654 .030196       0       0       0       0       0       0     0       0       0       0  
RSFGH15  RSFGH15      0 0 118.58 21.8116  .96007       0       0       0       0       0       0     0       0       0       0  
RSEMLA5  RSEMLA5      0 0 117.01 5.43181 .271768       0       0       0       0       0       0     0       0       0       0  
RSEBE_5  RSEBE_5      0 0 116.01 49.7309 14.8647       0       0       0     -50      30     -30     0       0       0       0  
RSCLE_5  RSCLE_5      0 0  117.9 .905006       0       0       0       0       0       0       0     0       0       0       0  
RSCHI_5  RSCHI_5      0 0 117.88 10.1398 3.16885       0       0       0       0       0       0     0       0       0       0  
RSCAI_5  RSCAI_5      0 0 117.68 9.95951 3.16797       0       0       0       0       0       0     0       0       0       0  
RSAVE_5  RSAVE_5      0 0 117.62 12.5582 .397883       0       0       0       0       0       0     0       0       0       0  
RSATCH5  RSATCH5      0 0 116.62 5.25064 .995596       0       0       0       0       0       0     0       0       0       0  
RSARM_5  RSARM_5      0 0 117.19 3.44062 .452947       0       0       0       0       0       0     0       0       0       0  
RSARD_5  RSARD_5      0 0 118.86 7.93102 3.16885      -5       0       0     -10       8      -8     0       0       0       0  
RSARD22  RSARD22      0 0 234.26       0       0       0       0       0       0       0       0     0       0       0       0  
RSANP_5  RSANP_5      0 0 119.08 6.48247 .679421       0       0       0       0       0       0     0       0       0       0  
RSAMA_5  RSAMA_5      0 0 116.85 24.0852 5.64941       0       0       0       0       0       0     0       0       0       0  
RSALO_5  RSALO_5      0 2 117.98 8.71613 1.64038     -24 -7.8958       0     -38      40     -40     0       0       0       0  
RSALJ_5  RSALJ_5      0 0 117.16 28.9717 4.88917       0       0       0       0       0       0     0       0       0       0  
RSALJ22  RSALJ22      0 0  232.8       0       0       0       0       0       0       0       0     0       0       0       0  
RSALAB5  RSALAB5      0 0 117.83 6.65477 .859712       0       0       0       0       0       0     0       0       0       0  
RSALAA5  RSALAA5      0 0 117.83  1.5116 .634126       0       0       0       0       0       0     0       0       0       0  
RSADU_5  RSADU_5      0 0 117.38       0       0       0       0       0     -20      15     -15     0       0       0       0  
RSACE_5  RSACE_5      0 0    119 7.67346 .377456       0       0       0       0       0       0     0       0       0       0  
RSACA_5  RSACA_5      0 0  116.5       0       0       0       0       0       0       0       0     0       0       0       0  
RSACA22  RSACA22      0 0 234.04       0       0       0       0       0       0       0       0     0       0       0       0  
RRZANB5  RRZANB5      0 0 117.87 18.0619       0       0       0       0       0       0       0     0       0       0       0  
RRZANA5  RRZANA5      0 0 117.89 .289531       0       0       0       0       0       0       0     0       0       0       0  
RRUSA_5  RRUSA_5      0 2 117.98       0       0      -1 1.27828       0     -53      10     -10     0       0       0       0  
RROVI31  RROVI31      0 3 414.26    29.7  26.192 -409.96 -63.989       0    -960     230    -750     0       0       0       0  
RROTB_5  RROTB_5      0 0 118.56 .144765       0       0       0       0       0       0       0     0       0       0       0  
RROSV_5  RROSV_5      0 0 119.59 7.87684 1.62972       0       0       0       0       0       0     0       0       0       0  
RROSI41  RROSI41      0 0 412.59 .338876 105.988       0       0       0       0       0       0     0       0       0       0  
RROSI22  RROSI22      0 0 234.66       0       0       0       0       0       0       0       0     0       0       0       0  
RROMN_5  RROMN_5      0 0 118.46 3.07826 .452947       0       0       0     -12       9      -9     0       0       0       0  
RROMN41  RROMN41      0 0 406.99       0       0       0       0       0       0       0       0     0       0       0       0  
RROMN25  RROMN25      0 0 118.46       0       0       0       0       0       0       0       0     0       0       0       0  
RROML25  RROML25      0 0 118.33 1.72031 .181179       0       0       0       0       0       0     0       0       0       0  
RROML15  RROML15      0 0 118.33 27.8669 6.78977       0       0       0       0       0       0     0       0       0       0  
RROGO_5  RROGO_5      0 0 118.65 12.9472 5.61388       0       0       0       0       0       0     0       0       0       0  
RRLUX_5  RRLUX_5      0 0 113.44  18.007   5.839       0       0       0       0       0       0     0       0       0       0  
RRIUR_5  RRIUR_5      0 0 117.98       0       0       0       0       0       0       0       0     0       0       0       0  
RRIUR22  RRIUR22      0 0 240.53       0       0       0       0       0       0       0       0     0       0       0       0  
RRIUR15  RRIUR15      0 2 117.98 9.18684 2.83314      -7  17.107       0     -48      18     -18     0       0       0       0  
RRISN_5  RRISN_5      0 0 118.84 4.66269       0       0       0       0       0       0       0     0       0       0       0  
RRIMS_5  RRIMS_5      0 0 117.23 10.1398 2.89709       0       0       0       0       0       0     0       0       0       0  
RRETE_5  RRETE_5      0 2 117.98 1.26559 .065722      -2 -.36933       0     -30      23     -23     0       0       0       0  
RRETE22  RRETE22      0 2 235.99 .888132 .783332     -48 -24.156       0    -210      60     -60     0       0       0       0  
RRETE15  RRETE15      0 2 117.98       0       0      -2       0       0     -16       8      -8     0       0       0       0  
RRESI25  RRESI25      0 0 117.27 5.43181 1.35795       0       0       0       0       0       0     0       0       0       0  
RRESI22  RRESI22      0 0 235.68       0       0       0       0       0       0       0       0     0       0       0       0  
RRESI15  RRESI15      0 0 117.27 16.1152 5.07034      -5       0       0     -21      16     -16     0       0       0       0  
RRESI12  RRESI12      0 0 235.68 44.4066  2.6644       0       0       0       0       0       0     0       0       0       0  
RREPUB5  RREPUB5      0 0    110       0       0       0       0       0       0       0       0     0       0       0       0  
RREPUA5  RREPUA5      0 0    110       0       0       0       0       0       0       0       0     0       0       0       0  
RREME_5  RREME_5      0 2 117.98 4.06231 1.28069     -74      10       0     -90      10     -10     0       0       0       0  
RREGH_5  RREGH_5      0 0 118.37 22.9236 4.11916       0       0       0       0       0       0     0       0       0       0  
RREDI_5  RREDI_5      0 0 118.46 1.99208 .271768       0       0       0       0       0       0     0       0       0       0  
RRAZB_5  RRAZB_5      0 0  118.1 1.99208       0       0       0       0       0       0       0     0       0       0       0  
RRAHM41  RRAHM41      0 0 419.79       0       0       0       0       0       0       0       0     0       0       0       0  
RRAHM15  RRAHM15      0 2 117.98 .461829 .285978     -24 -5.2823       0    -310      80     -80     0       0       0       0  
RRAGL_5  RRAGL_5      0 0  117.8       0       0       0       0       0       0       0       0     0       0       0       0  
RRADA_5  RRADA_5      0 0 117.77 14.5494 1.08619       0       0       0      -7       5      -5     0       0       0       0  
RRACO_5  RRACO_5      0 2 117.98 .088813 .078156     -10       7       0     -20       7     -16     0       0       0       0  
RRACA_5  RRACA_5      0 0 119.06 4.42734 1.52137       0       0       0       0       0       0     0       0       0       0  
RPUCI_5  RPUCI_5      0 0 117.72 3.16885 .724716      -2    -1.5       0      -3       2      -2     0       0       0       0  
RPTRI25  RPTRI25      0 0 117.73 1.99208 .181179       0       0       0       0       0       0     0       0       0       0  
RPTRI15  RPTRI15      0 0 117.52 7.87595 1.62972       0       0       0       0       0       0     0       0       0       0  
RPTEI_5  RPTEI_5      0 0 117.81 2.03737 .805536       0       0       0     -10      10     -10     0       0       0       0  
RPRZ2B5  RPRZ2B5      0 0 117.94       0       0       0       0       0       0       0       0     0       0       0       0  
RPRUN_5  RPRUN_5      0 2 117.98 9.09713 2.37042      -4 3.08997       0      -7      11     -11     0       0       0       0  
RPREJ_5  RPREJ_5      0 0 118.83       0       0       0       0       0       0       0       0     0       0       0       0  
RPRDU_5  RPRDU_5      0 0 117.82 8.14861 2.89709       0       0       0       0       0       0     0       0       0       0  
RPOTL_5  RPOTL_5      0 0 116.94 7.06154 2.08267       0       0       0       0       0       0     0       0       0       0  
RPOTE_5  RPOTE_5      0 2 117.98 1.04888  .22825     -12 3.84221       0     -19       7      -7     0       0       0       0  
RPOSUL5  RPOSUL5      0 0 111.93 2.89709 .905006       0       0       0       0       0       0     0       0       0       0  
RPOPL_5  RPOPL_5      0 0 117.71 17.0663 .896125       0       0       0       0       0       0     0       0       0       0  
RPONO_5  RPONO_5      0 0 117.72 1.26825       0       0       0       0       0       0       0     0       0       0       0  
RPOLT_5  RPOLT_5      0 0 118.43 43.0042 7.24183       0       0       0       0       0       0     0       0       0       0  
RPOJA_5  RPOJA_5      0 0 118.04 1.08619 .090589       0       0       0       0       0       0     0       0       0       0  
RPOIA_5  RPOIA_5      0 0 117.97 8.51008  1.8109       0       0       0       0       0       0     0       0       0       0  
RPOGO_5  RPOGO_5      0 2 117.98 10.4231 3.63157      -1 -6.9566       0      -8      12     -12     0       0       0       0  
RPLSD_5  RPLSD_5      0 0 118.19 10.1398 .271768       0       0       0       0       0       0     0       0       0       0  
RPLON_5  RPLON_5      0 2 117.98 32.2738 6.63612     -28 -33.689       0     -63      43     -43     0       0       0       0  
RPLEA_5  RPLEA_5      0 0 117.93 4.79858 1.90149       0       0       0       0       0       0     0       0       0       0  
RPITV_5  RPITV_5      0 0 117.83 9.05362 .634126       0       0       0       0       0       0     0       0       0       0  
RPITS_5  RPITS_5      0 0 117.29  18.562  5.4176       0       0       0       0       0       0     0       0       0       0  
RPITS22  RPITS22      0 0 238.71       0       0       0       0       0       0       0       0     0       0       0       0  
RPITN25  RPITN25      0 0 117.83  14.124  3.6218       0       0       0       0       0       0     0       0       0       0  
RPITN15  RPITN15      0 0 117.83 9.05362 3.16885      -2       0       0      -6       5      -5     0       0       0       0  
RPIPE25  RPIPE25      0 0 118.51 26.7079 1.43078       0       0       0       0       0       0     0       0       0       0  
RPIPE15  RPIPE15      0 0  118.1 27.2239 .760241       0       0       0       0       0       0     0       0       0       0  
RPIET_5  RPIET_5      0 0 119.72  3.6218 .905006       0       0       0       0       0       0     0       0       0       0  
RPIETR5  RPIETR5      0 0 119.62       0       0       0       0       0       0       0       0     0       0       0       0  
RPETRO5  RPETRO5      0 0 117.72 5.25064 1.17677       0       0       0       0       0       0     0       0       0       0  
RPEST_5  RPEST_5      0 0 117.49  3.6218 1.35795       0       0       0       0       0       0     0       0       0       0  
RPESTB5  RPESTB5      0 0 117.49       0       0       0       0       0       0       0       0     0       0       0       0  
RPEST22  RPEST22      0 0 234.32       0       0       0       0       0       0       0       0     0       0       0       0  
RPEST12  RPEST12      0 0 234.32       0       0       0       0       0       0       0       0     0       0       0       0  
RPELI_5  RPELI_5      0 0 120.13      15       4       0       0       0     -10       5      -5     0       0       0       0  
RPELI41  RPELI41      0 0 413.34       0       0       0       0       0       0       0       0     0       0       0       0  
RPELI25  RPELI25      0 0 112.72      80      35       0       0       0       0       0       0     0       0       0       0  
RPDFE41  RPDFE41      0 0 411.04       0       0       0       0       0       0       0       0     0       0       0       0  
RPDF222  RPDF222      0 2 235.99       1   0.882     -97 80.0344       0    -778     117    -181     0       0       0       0  
RPDF212  RPDF212      0 2 235.99     3.2   2.822    -231 53.8476       0    -388      97    -180     0       0       0       0  
RPATR_5  RPATR_5      0 0  117.5 5.61299 1.62972       0       0       0       0       0       0     0       0       0       0  
RPATI_5  RPATI_5      0 0 117.83 1.35795 .452947       0       0       0     -10       8      -8     0       0       0       0  
RPAST_5  RPAST_5      0 0 116.18 7.87684 1.26736       0       0       0       0       0       0     0       0       0       0  
RPASC_5  RPASC_5      0 2 117.98  15.513 3.59693      -1 -8.1685       0     -16      15     -15     0       0       0       0  
RPARO_5  RPARO_5      0 0 117.82       0       0       0       0       0    -147      57    -100     0       0       0       0  
RPARO22  RPARO22      0 0 233.54       0       0       0       0       0       0       0       0     0       0       0       0  
RPANDB5  RPANDB5      0 0 116.56 14.9739 1.85531       0       0       0       0       0       0     0       0       0       0  
RPANDA5  RPANDA5      0 0 117.88 12.0049 1.18566       0       0       0       0       0       0     0       0       0       0  
RPALA_5  RPALA_5      0 0 117.62 9.95862 4.52681       0       0       0       0       0       0     0       0       0       0  
RPAJAB5  RPAJAB5      0 0 118.44 11.3166 .362358       0       0       0       0       0       0     0       0       0       0  
RPAJAA5  RPAJAA5      0 0 118.03 11.4978 .905006       0       0       0       0       0       0     0       0       0       0  
RPAIS_5  RPAIS_5      0 0 117.55 14.1231 2.89709       0       0       0       0       0       0     0       0       0       0  
RP.O._5  RP.O._5      0 0 118.86       0       0       0       0       0       0       0       0     0       0       0       0  
ROTRO_5  ROTRO_5      0 0 117.36 7.15213 .995596       0       0       0      -2       1      -1     0       0       0       0  
ROTOP_5  ROTOP_5      0 0 118.49 19.6188 .841949       0       0       0       0       0       0     0       0       0       0  
ROTHN22  ROTHN22      0 0 234.02      55       6       0       0       0       0       0       0     0       0       0       0  
ROSTV_5  ROSTV_5      0 0 117.69 3.62091 1.26736       0       0       0       0       0       0     0       0       0       0  
ROSTR_5  ROSTR_5      0 2 117.98       0       0     -25       0       0     -65      40     -40     0       0       0       0  
ROSTRB5  ROSTRB5      0 2 117.98 .621692 .547089     -75 4.30119       0    -130      40     -40     0       0       0       0  
ROSTRA5  ROSTRA5      0 2 117.98 .625245 .390778     -25 19.0703       0     -80      30     -36     0       0       0       0  
RORTI_5  RORTI_5      0 0 116.94 6.24712 1.62972       0       0       0       0       0       0     0       0       0       0  
RORLA_5  RORLA_5      0 2 117.98 6.69829 1.49206     -16 -9.3653       0     -26      25     -26     0       0       0       0  
RORDV_5  RORDV_5      0 2 117.98 73.2629 16.4917     -42 -54.478       0    -192      96     -96     0       0       0       0  
RORAV_5  RORAV_5      0 2 117.98 2.27717 .283314      -1 -4.0978       0      -9      19     -19     0       0       0       0  
RORAS_5  RORAS_5      0 0 116.28 13.0369 .271768       0       0       0       0       0       0     0       0       0       0  
RORAD_5  RORAD_5      0 0 117.51 30.4203 2.98679       0       0       0       0       0       0     0       0       0       0  
RORAD41  RORAD41      0 0  415.6 .402626 107.939       0       0       0       0       0       0     0       0       0       0  
ROLTN_5  ROLTN_5      0 0 117.26 10.8645  1.8109       0       0       0       0       0       0     0       0       0       0  
RODOR_5  RODOR_5      0 0 118.31 21.4484 3.44862       0       0       0       0       0       0     0       0       0       0  
ROBOR25  ROBOR25      0 0 118.45 9.05362  1.8109       0       0       0       0       0       0     0       0       0       0  
ROBOR15  ROBOR15      0 0 118.44 10.8645  1.8109       0       0       0       0       0       0     0       0       0       0  
ROBO1A5  ROBO1A5      0 0  118.5 8.14861  1.8109       0       0       0       0       0       0     0       0       0       0  
RNEPT_5  RNEPT_5      0 0 117.06 10.8645 3.62091       0       0       0       0       0       0     0       0       0       0  
RNEGR_5  RNEGR_5      0 2 117.98 9.40088 2.66084     -30 12.5616       0     -48      30     -30     0       0       0       0  
RNCRF_5  RNCRF_5      0 2 117.98 .213152 .171409     -44      18       0     -70      18     -18     0       0       0       0  
RNAZA_5  RNAZA_5      0 0 118.07 2.71591 .905006       0       0       0       0       0       0     0       0       0       0  
RNAVOB5  RNAVOB5      0 0 117.91       0       0       0       0       0       0       0       0     0       0       0       0  
RNAVOA5  RNAVOA5      0 0 117.91  12.001   0.001       0       0       0      -5      10     -10     0       0       0       0  
RNASA_5  RNASA_5      0 0 117.68 12.1443 1.72031       0       0       0       0       0       0     0       0       0       0  
RNADA_1  RNADA_1      0 0 417.05       0       0       0       0       0       0       0       0     0       0       0       0  
RNADAS5  RNADAS5      0 0  118.5       0       0       0       0       0       0       0       0     0       0       0       0  
RMVOD_5  RMVOD_5      0 0 119.99 6.33771 .905006       0       0       0       0       0       0     0       0       0       0  
RMVODN5  RMVODN5      0 2 117.98 .111905 .098583      -6 2.36267       0     -75      10     -20     0       0       0       0  
RMUZI_5  RMUZI_5      0 0 115.79 8.69126  1.8109      -2       0       0     -20      15     -15     0       0       0       0  
RMURS_5  RMURS_5      0 0 118.87       0       0       0       0       0       0       0       0     0       0       0       0  
RMURN_5  RMURN_5      0 0 120.83       0       0       0       0       0       0       0       0     0       0       0       0  
RMURE_5  RMURE_5      0 0 118.55 20.7325 1.99208       0       0       0       0       0       0     0       0       0       0  
RMUN_N5  RMUN_N5      0 0 118.48 5.88476 2.01872       0       0       0       0       0       0     0       0       0       0  
RMUNV22  RMUNV22      0 0 230.04       0       0       0       0       0       0       0       0     0       0       0       0  
RMUNT_5  RMUNT_5      0 2 117.98 .355253  .26644     -47      10       0     -54      10     -10     0       0       0       0  
RMRGN_5  RMRGN_5      0 0 118.02  7.3786 1.24072       0       0       0       0       0       0     0       0       0       0  
RMOZA_5  RMOZA_5      0 0 117.27  3.6218 1.35795       0       0       0       0       0       0     0       0       0       0  
RMOTR_5  RMOTR_5      0 0 117.91 10.4116 4.16445       0       0       0      -5       4      -4     0       0       0       0  
RMOST_5  RMOST_5      0 2 117.98 7.27824 .031085      -7     -62       0     -15      62     -62     0       0       0       0  
RMOST22  RMOST22      0 0 242.69       0       0       0       0       0       0       0       0     0       0       0       0  
RMORO_5  RMORO_5      0 0 117.65       0       0       0       0       0     -67      50     -50     0       0       0       0  
RMORO15  RMORO15      0 0 117.65       0       0       0       0       0       0       0       0     0       0       0       0  
RMORE_5  RMORE_5      0 0 117.47 8.96303 2.98768       0       0       0       0       0       0     0       0       0       0  
RMONO_5  RMONO_5      0 2 117.98  3.9664 .065722      -4 -.88093       0     -50      26     -26     0       0       0       0  
RMOIN_5  RMOIN_5      0 0 118.97 5.62276 .615475     -19   -16.5       0     -22      17     -17     0       0       0       0  
RMIZI_5  RMIZI_5      0 0 117.48  21.729 3.80298       0       0       0       0       0       0     0       0       0       0  
RMITO_5  RMITO_5      0 0 117.64       0       0       0       0       0       0       0       0     0       0       0       0  
RMIRV_5  RMIRV_5      0 2 117.98 1.93968 1.01869      -7 1.59627       0    -102      26     -30     0       0       0       0  
RMIRS_5  RMIRS_5      0 0 118.28 3.35891 .343707       0       0       0       0       0       0     0       0       0       0  
RMIOV_5  RMIOV_5      0 2 117.98   23.33   4.326      -5 -12.301       0      -8      61     -61     0       0       0       0  
RMINT_5  RMINT_5      0 0  117.7       0       0       0       0       0       0       0       0     0       0       0       0  
RMINT41  RMINT41      0 0 412.65 .474023 106.744       0       0       0       0       0       0     0       0       0       0  
RMINT22  RMINT22      0 0 234.12       0       0       0       0       0       0       0       0     0       0       0       0  
RMINT12  RMINT12      0 0 234.12       0       0       0       0       0       0       0       0     0       0       0       0  
RMINE_5  RMINE_5      0 0  117.5 2.98768 .452947       0       0       0     -10       8      -8     0       0       0       0  
RMILI25  RMILI25      0 0 117.91 10.9729 .579062       0       0       0       0       0       0     0       0       0       0  
RMILI15  RMILI15      0 0 117.85 8.88132 .714946       0       0       0     -14      10     -10     0       0       0       0  
RMILCV5  RMILCV5      0 0 117.74 33.5891 9.32538       0       0       0       0       0       0     0       0       0       0  
RMIHV_5  RMIHV_5      0 2 117.98 .139437 .122562      -7  1.4289       0     -94      70     -78     0       0       0       0  
RMIHL_5  RMIHL_5      0 0 118.02 1.50272       0       0       0       0       0       0       0     0       0       0       0  
RMICA_5  RMICA_5      0 0 117.62 6.67253       0       0       0       0       0       0       0     0       0       0       0  
RMGREB5  RMGREB5      0 0 117.43       0       0       0       0       0       0       0       0     0       0       0       0  
RMETR_5  RMETR_5      0 0 119.07       0       0      -1      -5       0      -8       5      -5     0       0       0       0  
RMEDS_5  RMEDS_5      0 0 117.75 7.79513 .507123       0       0       0       0       0       0     0       0       0       0  
RMEDN_5  RMEDN_5      0 2 117.98 4.65203 2.10221      -7 -2.9984       0     -84      28     -28     0       0       0       0  
RMEDI_5  RMEDI_5      0 0 117.92 9.05362 .905006       0       0       0       0       0       0     0       0       0       0  
RMEDG41  RMEDG41      0 0 412.03       0       0       0       0       0       0       0       0     0       0       0       0  
RMEDG25  RMEDG25      0 2 117.98 .134108 .100359      -7 9.65799       0    -320      30     -30     0       0       0       0  
RMEDG15  RMEDG15      0 0 117.98      18       8       0       0       0       0       0       0     0       0       0       0  
RMDUNG5  RMDUNG5      0 0    110       0       0       0       0       0       0       0       0     0       0       0       0  
RMDCOS5  RMDCOS5      0 0    110       0       0       0       0       0       0       0       0     0       0       0       0  
RMDCIO5  RMDCIO5      0 0    110       0       0       0       0       0       0       0       0     0       0       0       0  
RMCIU_5  RMCIU_5      0 0  117.2 17.3825  4.5721       0       0       0     -13      10     -10     0       0       0       0  
RMBRVB5  RMBRVB5      0 0 116.57 6.80842 1.13148       0       0       0       0       0       0     0       0       0       0  
RMBRVA5  RMBRVA5      0 0 118.39 26.9344 1.56666       0       0       0       0       0       0     0       0       0       0  
RMAXI_5  RMAXI_5      0 2 117.98 1.44677 .073715      -7  3.7541       0     -53      15     -18     0       0       0       0  
RMAVR_5  RMAVR_5      0 0 117.14 8.60067  1.8109       0       0       0       0       0       0     0       0       0       0  
RMARI22  RMARI22      0 2 235.99 .621692 .547977    -118  -32.84       0    -210      37     -37     0       0       0       0  
RMARG_5  RMARG_5      0 0 117.37 6.88036 2.71591       0       0       0       0       0       0     0       0       0       0  
RMARC_5  RMARC_5      0 2 117.98 6.52777 2.27095      -4 -10.952       0     -39      19     -19     0       0       0       0  
RMARA_5  RMARA_5      0 2 117.98 7.62284 2.18392     -10 -6.6259       0     -45      16     -18     0       0       0       0  
RMANA_5  RMANA_5      0 0 118.48 23.3579 3.07738       0       0       0       0       0       0     0       0       0       0  
RMANA25  RMANA25      0 0 118.48       0       0       0       0       0       0       0       0     0       0       0       0  
RMAGU_5  RMAGU_5      0 0 119.24       0       0       0       0       0       0       0       0     0       0       0       0  
RMACN_5  RMACN_5      0 2 117.98 4.55256 .928098      -1 -3.1039       0     -18      10     -10     0       0       0       0  
RM-GRA5  RM-GRA5      0 0 117.43 5.43181  1.8109       0       0       0       0       0       0     0       0       0       0  
RLUPO_5  RLUPO_5      0 0 117.96 .995596 .362358       0       0       0       0       0       0     0       0       0       0  
RLUPE_5  RLUPE_5      0 0 117.65 10.8645 1.53913       0       0       0       0       0       0     0       0       0       0  
RLUMI_5  RLUMI_5      0 0 117.97 2.71591 .905006       0       0       0       0       0       0     0       0       0       0  
RLUGO25  RLUGO25      0 0 116.02 14.6666 .634126       0       0       0       0       0       0     0       0       0       0  
RLUGO15  RLUGO15      0 0 114.38 17.4731 3.34915       0       0       0       0       0       0     0       0       0       0  
RLUDU_5  RLUDU_5      0 0 117.81 6.23824 .045295       0       0       0      -6       5      -5     0       0       0       0  
RLREB_5  RLREB_5      0 0 116.74       0       0       0       0       0       0       0       0     0       0       0       0  
RLOVR_5  RLOVR_5      0 0 116.15 4.07386 .905006       0       0       0       0       0       0     0       0       0       0  
RLOTR_5  RLOTR_5      0 0 118.03 .905006 .181179      -2      -1       0      -2       1      -1     0       0       0       0  
RLOTR22  RLOTR22      0 2 235.99 .888132 .783332     -49      80       0    -510      80     -98     0       0       0       0  
RLIVEZ5  RLIVEZ5      0 0 117.55 3.53121 .905006       0       0       0       0       0       0     0       0       0       0  
RLILI_5  RLILI_5      0 2 117.98 .088813 .078156      -5 1.62177       0     -21      11     -11     0       0       0       0  
RLIES25  RLIES25      0 0 118.05       0       0       0       0       0       0       0       0     0       0       0       0  
RLIES15  RLIES15      0 0  117.7 6.78977 1.62972       0       0       0       0       0       0     0       0       0       0  
RLEHL_5  RLEHL_5      0 2 117.98 4.57121 .944084     -10 -7.5735       0     -16      12     -12     0       0       0       0  
RLECHI5  RLECHI5      0 2 117.98 6.37945 1.88284      -8  1.1018       0     -12      15     -15     0       0       0       0  
RLAROT5  RLAROT5      0 0 117.99 4.16445 .045295       0       0       0       0       0       0     0       0       0       0  
RLAM_U5  RLAM_U5      0 0 117.58       0       0       0       0       0       0       0       0     0       0       0       0  
RLAMI25  RLAMI25      0 0 117.53 6.33771 2.53473       0       0       0       0       0       0     0       0       0       0  
RLAMI15  RLAMI15      0 0 117.56       0       0       0       0       0       0       0       0     0       0       0       0  
RLACS41  RLACS41      0 0 414.24       0       0       0       0       0       0       0       0     0       0       0       0  
RLACS25  RLACS25      0 0 117.97       0       0       0       0       0       0       0       0     0       0       0       0  
RLACS15  RLACS15      0 0 117.97 11.4889 4.15557       0       0       0       0       0       0     0       0       0       0  
RLAC421  RLAC421      0 0 414.24       0       0       0       0       0       0       0       0     0       0       0       0  
RLAC222  RLAC222      0 0 230.17       0       0       0       0       0       0       0       0     0       0       0       0  
RLAC212  RLAC212      0 0 230.17       0       0       0       0       0       0       0       0     0       0       0       0  
RJUGU_5  RJUGU_5      0 0 117.61 3.13244 .434296       0       0       0       0       0       0     0       0       0       0  
RJUCU_5  RJUCU_5      0 0 118.02 11.5635  .82241       0       0       0       0       0       0     0       0       0       0  
RJUCA_5  RJUCA_5      0 0 118.02       0       0       0       0       0       0       0       0     0       0       0       0  
RJIMBO5  RJIMBO5      0 0 116.16       0       0       0       0       0       0       0       0     0       0       0       0  
RJILT_5  RJILT_5      0 0 118.25  19.284 8.05802       0       0       0       0       0       0     0       0       0       0  
RJILA25  RJILA25      0 0 117.08       0       0       0       0       0       0       0       0     0       0       0       0  
RJILA15  RJILA15      0 0 117.14 7.39636 .579062       0       0       0       0       0       0     0       0       0       0  
RJIBO_5  RJIBO_5      0 0 117.44 11.9507 4.36073       0       0       0       0       0       0     0       0       0       0  
RJIBL_5  RJIBL_5      0 2 117.98 4.75062 1.00181      -3 -1.1477       0     -38      15     -15     0       0       0       0  
RIZVR_5  RIZVR_5      0 2 117.98 5.77552 .708729      -9       6       0     -14       6      -6     0       0       0       0  
RIZVO_5  RIZVO_5      0 2 117.98 19.9714 4.32254      -6      -7       0     -10       7      -7     0       0       0       0  
RIUSBB5  RIUSBB5      0 0    110       0       0       0       0       0       0       0       0     0       0       0       0  
RIUSBA5  RIUSBA5      0 0 119.04       0       0       0       0       0       0       0       0     0       0       0       0  
RIUM__5  RIUM__5      0 0 118.23 4.79858 1.26736       0       0       0       0       0       0     0       0       0       0  
RITCA_5  RITCA_5      0 0 118.01 8.97191 .977833      -6   -5.25       0     -17      13     -13     0       0       0       0  
RISAL22  RISAL22      0 2 235.99    10.4   9.172    -124 3.59075       0    -315      83    -150     0       0       0       0  
RISAC_5  RISAC_5      0 2 117.98 1.82866 .920993      -4 1.06036       0      -6      10     -10     0       0       0       0  
RISAC41  RISAC41      0 0 414.16 .436419 209.104       0       0       0       0       0       0     0       0       0       0  
RISA2_5  RISA2_5      0 0 118.08       0       0       0       0       0       0       0       0     0       0       0       0  
RISA1_5  RISA1_5      0 0 118.08       0       0       0       0       0       0       0       0     0       0       0       0  
RIREMB5  RIREMB5      0 0 117.77 6.20182 2.60756       0       0       0       0       0       0     0       0       0       0  
RIREMA5  RIREMA5      0 0 117.77       0       0      -4       0       0      -6       5      -5     0       0       0       0  
RIONE_5  RIONE_5      0 2 117.98  .13322 .117233      -6 -3.2652       0     -38      15     -15     0       0       0       0  
RINSU_5  RINSU_5      0 2 117.98 4.43267  1.1075      -1      11       0     -32      11     -21     0       0       0       0  
RINCRT5  RINCRT5      0 0 117.85  4.0561 1.17677     -12       0       0     -17      13     -13     0       0       0       0  
RIMT__5  RIMT__5      0 0  116.1 14.3948 2.17326       0       0       0       0       0       0     0       0       0       0  
RIMT2_5  RIMT2_5      0 0  116.1 37.1195 4.88917       0       0       0       0       0       0     0       0       0       0  
RIMGB25  RIMGB25      0 0 116.91 4.52681  1.8109       0       0       0       0       0       0     0       0       0       0  
RIMGB15  RIMGB15      0 0 117.44       0       0       0       0       0       0       0       0     0       0       0       0  
RIFA__5  RIFA__5      0 0 116.68 15.5814 .135884       0       0       0       0       0       0     0       0       0       0  
RIERN41  RIERN41      0 0  412.3       0       0       0       0       0       0       0       0     0       0       0       0  
RIERN25  RIERN25      0 0 119.43       0       0       0       0       0    -100      75     -75     0       0       0       0  
RIERN22  RIERN22      0 2 235.99    8.25   7.276    -156 -54.852       0    -200     205    -205     0       0       0       0  
RIERN15  RIERN15      0 0 118.24 1.62972 .181179       0       0       0       0       0       0     0       0       0       0  
RICOA_5  RICOA_5      0 0 117.52 4.07386  1.8109       0       0       0       0       0       0     0       0       0       0  
RICA__5  RICA__5      0 0 117.71 11.9596 2.40861       0       0       0       0       0       0     0       0       0       0  
RIAZUB5  RIAZUB5      0 0 117.45       0       0       0       0       0       0       0       0     0       0       0       0  
RIAZUA5  RIAZUA5      0 0 117.45       0       0       0       0       0    -140      61     -61     0       0       0       0  
RIAZU25  RIAZU25      0 0 117.45       0       0       0       0       0       0       0       0     0       0       0       0  
RIAZ222  RIAZ222      0 0 235.47       0       0       0       0       0       0       0       0     0       0       0       0  
RIAZ212  RIAZ212      0 0    220       0       0       0       0       0       0       0       0     0       0       0       0  
RIASS_5  RIASS_5      0 0 117.79 44.3169 8.38308       0       0       0      -7      26     -26     0       0       0       0  
RIASI25  RIASI25      0 0 118.33       0       0       0       0       0       0       0       0     0       0       0       0  
RIASI22  RIASI22      0 0 230.09       0       0       0       0       0       0       0       0     0       0       0       0  
RIASI15  RIASI15      0 0 118.33 14.6577 6.20182       0       0       0       0       0       0     0       0       0       0  
RIANC_5  RIANC_5      0 0 117.08 6.14765 2.71591       0       0       0       0       0       0     0       0       0       0  
RHVER15  RHVER15      0 0 117.92  1.8109 .905006       0       0       0     -15      16     -16     0       0       0       0  
...